data/open_dss/uhs9_1247/uhs9_1247--udt11456/Loads_scenario_35.dss
New Load.load_p1ulv5429 conn=wye bus1=p1ulv5429.1.2 kV=0.2080002494301389 Vminpu=0.8 Vmaxpu=1.2 model=1 kW=10.45 kvar=0.6005709639720869 Phases=2

New Load.load_p1ulv5430 conn=wye bus1=p1ulv5430.1.2 kV=0.2080002494301389 Vminpu=0.8 Vmaxpu=1.2 model=1 kW=4.86005 kvar=0.9894153325398525 Phases=2

New Load.load_p1ulv5438 conn=wye bus1=p1ulv5438.1.2 kV=0.2080002494301389 Vminpu=0.8 Vmaxpu=1.2 model=1 kW=11.12 kvar=0.7407437090079797 Phases=2

New Load.load_p1ulv5447 conn=wye bus1=p1ulv5447.1.2 kV=0.2080002494301389 Vminpu=0.8 Vmaxpu=1.2 model=1 kW=1.38001 kvar=0.28022298226153225 Phases=2

New Load.load_p1ulv5454 conn=wye bus1=p1ulv5454.1.2 kV=0.2080002494301389 Vminpu=0.8 Vmaxpu=1.2 model=1 kW=12.51 kvar=1.019952528634744 Phases=2

New Load.load_p1ulv5455 conn=wye bus1=p1ulv5455.1.2 kV=0.2080002494301389 Vminpu=0.8 Vmaxpu=1.2 model=1 kW=11.19 kvar=0.7492945800859013 Phases=2

New Load.load_p1ulv5456 conn=wye bus1=p1ulv5456.1.2.3 kV=0.48 Vminpu=0.8 Vmaxpu=1.2 model=1 kW=47.5105 kvar=9.64741849605186 Phases=3

New Load.load_p1ulv5457 conn=wye bus1=p1ulv5457.1.2 kV=0.2080002494301389 Vminpu=0.8 Vmaxpu=1.2 model=1 kW=5.59006 kvar=1.1292468671581726 Phases=2

New Load.load_p1ulv5458 conn=wye bus1=p1ulv5458.1.2 kV=0.2080002494301389 Vminpu=0.8 Vmaxpu=1.2 model=1 kW=5.01005 kvar=1.019952528634744 Phases=2

New Load.load_p1ulv5459 conn=wye bus1=p1ulv5459.1.2 kV=0.2080002494301389 Vminpu=0.8 Vmaxpu=1.2 model=1 kW=4.34004 kvar=0.8790092456155372 Phases=2

New Load.load_p1ulv5460 conn=wye bus1=p1ulv5460.1.2.3 kV=0.48 Vminpu=0.8 Vmaxpu=1.2 model=1 kW=258.75299999999993 kvar=52.5420376150305 Phases=3

New Load.load_p1ulv5461 conn=wye bus1=p1ulv5461.1.2 kV=0.2080002494301389 Vminpu=0.8 Vmaxpu=1.2 model=1 kW=4.44004 kvar=0.8992627282013091 Phases=2

New Load.load_p1ulv5462 conn=wye bus1=p1ulv5462.1.2 kV=0.2080002494301389 Vminpu=0.8 Vmaxpu=1.2 model=1 kW=11.16 kvar=0.7393639251946486 Phases=2

New Load.load_p1ulv5463 conn=wye bus1=p1ulv5463.1.2 kV=0.2080002494301389 Vminpu=0.8 Vmaxpu=1.2 model=1 kW=12.9101 kvar=1.101385051554455 Phases=2

New Load.load_p1ulv5464 conn=wye bus1=p1ulv5464.1.2 kV=0.2080002494301389 Vminpu=0.8 Vmaxpu=1.2 model=1 kW=11.83 kvar=0.879252122891664 Phases=2

New Load.load_p1ulv5465 conn=wye bus1=p1ulv5465.1.2 kV=0.2080002494301389 Vminpu=0.8 Vmaxpu=1.2 model=1 kW=12.6 kvar=1.0409343578723245 Phases=2

New Load.load_p1ulv5466 conn=wye bus1=p1ulv5466.1.2 kV=0.2080002494301389 Vminpu=0.8 Vmaxpu=1.2 model=1 kW=12.71 kvar=1.0606687900945995 Phases=2

New Load.load_p1ulv5467 conn=wye bus1=p1ulv5467.1.2 kV=0.2080002494301389 Vminpu=0.8 Vmaxpu=1.2 model=1 kW=11.92 kvar=0.8998375215150975 Phases=2

New Load.load_p1ulv5468 conn=wye bus1=p1ulv5468.1.2 kV=0.2080002494301389 Vminpu=0.8 Vmaxpu=1.2 model=1 kW=11.06 kvar=0.7191629458284491 Phases=2

New Load.load_p1ulv5469 conn=wye bus1=p1ulv5469.1.2 kV=0.2080002494301389 Vminpu=0.8 Vmaxpu=1.2 model=1 kW=11.96 kvar=0.910306540815263 Phases=2

New Load.load_p1ulv5473 conn=wye bus1=p1ulv5473.1.2 kV=0.2080002494301389 Vminpu=0.8 Vmaxpu=1.2 model=1 kW=4.73005 kvar=0.960477617731872 Phases=2

New Load.load_p1ulv5475 conn=wye bus1=p1ulv5475.1.2 kV=0.2080002494301389 Vminpu=0.8 Vmaxpu=1.2 model=1 kW=11.78 kvar=0.8690991898599637 Phases=2

New Load.load_p1ulv5476 conn=wye bus1=p1ulv5476.1.2 kV=0.2080002494301389 Vminpu=0.8 Vmaxpu=1.2 model=1 kW=3.9600400000000002 kvar=0.7999668632932473 Phases=2

New Load.load_p1ulv5477 conn=wye bus1=p1ulv5477.1.2 kV=0.2080002494301389 Vminpu=0.8 Vmaxpu=1.2 model=1 kW=3.00003 kvar=0.6107500293370508 Phases=2

New Load.load_p1ulv5478 conn=wye bus1=p1ulv5478.1.2 kV=0.2080002494301389 Vminpu=0.8 Vmaxpu=1.2 model=1 kW=12.12 kvar=0.940555818788026 Phases=2

New Load.load_p1ulv5479 conn=wye bus1=p1ulv5479.1.2 kV=0.2080002494301389 Vminpu=0.8 Vmaxpu=1.2 model=1 kW=11.69 kvar=0.8508239104029033 Phases=2

New Load.load_p1ulv5480 conn=wye bus1=p1ulv5480.1.2 kV=0.2080002494301389 Vminpu=0.8 Vmaxpu=1.2 model=1 kW=15.0101 kvar=1.5210527449775426 Phases=2

New Load.load_p1ulv5482 conn=wye bus1=p1ulv5482.1.2 kV=0.2080002494301389 Vminpu=0.8 Vmaxpu=1.2 model=1 kW=4.03004 kvar=0.8204408116683792 Phases=2

New Load.load_p1ulv5485 conn=wye bus1=p1ulv5485.1.2 kV=0.2080002494301389 Vminpu=0.8 Vmaxpu=1.2 model=1 kW=11.79 kvar=0.8711297764663039 Phases=2

New Load.load_p1ulv5486 conn=wye bus1=p1ulv5486.1.2.3 kV=0.48 Vminpu=0.8 Vmaxpu=1.2 model=1 kW=43.28039999999999 kvar=8.78846005570396 Phases=3

New Load.load_p1ulv5489 conn=wye bus1=p1ulv5489.1.2 kV=0.2080002494301389 Vminpu=0.8 Vmaxpu=1.2 model=1 kW=4.14004 kvar=0.8406709773712032 Phases=2

New Load.load_p1ulv5490 conn=wye bus1=p1ulv5490.1.2 kV=0.2080002494301389 Vminpu=0.8 Vmaxpu=1.2 model=1 kW=5.53006 kvar=1.1200297390827405 Phases=2

New Load.load_p1ulv5491 conn=wye bus1=p1ulv5491.1.2 kV=0.2080002494301389 Vminpu=0.8 Vmaxpu=1.2 model=1 kW=2.81003 kvar=0.570600928141371 Phases=2

New Load.load_p1ulv5492 conn=wye bus1=p1ulv5492.1.2 kV=0.2080002494301389 Vminpu=0.8 Vmaxpu=1.2 model=1 kW=11.67 kvar=0.8489421946902781 Phases=2

New Load.load_p1ulv5497 conn=wye bus1=p1ulv5497.1.2 kV=0.2080002494301389 Vminpu=0.8 Vmaxpu=1.2 model=1 kW=3.9600400000000002 kvar=0.7999668632932473 Phases=2

New Load.load_p1ulv5500 conn=wye bus1=p1ulv5500.1.2 kV=0.2080002494301389 Vminpu=0.8 Vmaxpu=1.2 model=1 kW=12.42 kvar=0.9990587632523329 Phases=2

New Load.load_p1ulv5504 conn=wye bus1=p1ulv5504.1.2 kV=0.2080002494301389 Vminpu=0.8 Vmaxpu=1.2 model=1 kW=16.8702 kvar=3.4256402166277793 Phases=2

New Load.load_p1ulv7113 conn=wye bus1=p1ulv7113.1.2 kV=0.2080002494301389 Vminpu=0.8 Vmaxpu=1.2 model=1 kW=2.7800300000000004 kvar=0.5703014980185626 Phases=2

New Load.load_p1ulv7114 conn=wye bus1=p1ulv7113.1.2 kV=0.2080002494301389 Vminpu=0.8 Vmaxpu=1.2 model=1 kW=2.81003 kvar=0.570600928141371 Phases=2

New Load.load_p1ulv7998 conn=wye bus1=p1ulv7998.1.2 kV=0.2080002494301389 Vminpu=0.8 Vmaxpu=1.2 model=1 kW=11.49 kvar=0.8102121782761024 Phases=2

New Load.load_p1ulv7999 conn=wye bus1=p1ulv7999.1.2.3 kV=0.48 Vminpu=0.8 Vmaxpu=1.2 model=1 kW=37.1704 kvar=7.547771639230194 Phases=3

New Load.load_p1ulv8000 conn=wye bus1=p1ulv8000.1.2.3 kV=0.48 Vminpu=0.8 Vmaxpu=1.2 model=1 kW=37.7104 kvar=7.6574233159725535 Phases=3

New Load.load_p1ulv8001 conn=wye bus1=p1ulv8001.1.2.3 kV=0.48 Vminpu=0.8 Vmaxpu=1.2 model=1 kW=38.2504 kvar=7.767074992714917 Phases=3

New Load.load_p1ulv8036 conn=wye bus1=p1ulv8036.1.2 kV=0.2080002494301389 Vminpu=0.8 Vmaxpu=1.2 model=1 kW=4.25004 kvar=0.8607811112883423 Phases=2

New Load.load_p1ulv8037 conn=wye bus1=p1ulv8037.1.2 kV=0.2080002494301389 Vminpu=0.8 Vmaxpu=1.2 model=1 kW=11.27 kvar=0.7694756260336619 Phases=2

New Load.load_p1ulv8038 conn=wye bus1=p1ulv8038.1.2 kV=0.2080002494301389 Vminpu=0.8 Vmaxpu=1.2 model=1 kW=11.28 kvar=0.7695454848435601 Phases=2

New Load.load_p1ulv8039 conn=wye bus1=p1ulv8039.1.2.3 kV=0.48 Vminpu=0.8 Vmaxpu=1.2 model=1 kW=41.5004 kvar=8.427015639775433 Phases=3

New Load.load_p1ulv8040 conn=wye bus1=p1ulv8040.1.2 kV=0.2080002494301389 Vminpu=0.8 Vmaxpu=1.2 model=1 kW=9.7101 kvar=1.9717199006222452 Phases=2

New Load.load_p1ulv8041 conn=wye bus1=p1ulv8041.1.2.3 kV=0.48 Vminpu=0.8 Vmaxpu=1.2 model=1 kW=21.6502 kvar=4.39626061445832 Phases=3

New Load.load_p1ulv8042 conn=wye bus1=p1ulv8042.1.2.3 kV=0.48 Vminpu=0.8 Vmaxpu=1.2 model=1 kW=42.53039999999999 kvar=8.636166060228456 Phases=3

New Load.load_p1ulv8043 conn=wye bus1=p1ulv8043.1.2 kV=0.2080002494301389 Vminpu=0.8 Vmaxpu=1.2 model=1 kW=11.47 kvar=0.8102961810428216 Phases=2

New Load.load_p1ulv8048 conn=wye bus1=p1ulv8048.1.2 kV=0.2080002494301389 Vminpu=0.8 Vmaxpu=1.2 model=1 kW=3.57004 kvar=0.7193043493362031 Phases=2

New Load.load_p1ulv8049 conn=wye bus1=p1ulv8049.1.2 kV=0.2080002494301389 Vminpu=0.8 Vmaxpu=1.2 model=1 kW=11.94 kvar=0.8992627282013091 Phases=2

New Load.load_p1ulv8060 conn=wye bus1=p1ulv8060.1.2 kV=0.2080002494301389 Vminpu=0.8 Vmaxpu=1.2 model=1 kW=1.62002 kvar=0.32980578945097516 Phases=2

New Load.load_p1ulv8061 conn=wye bus1=p1ulv8061.1.2 kV=0.2080002494301389 Vminpu=0.8 Vmaxpu=1.2 model=1 kW=1.38001 kvar=0.28022298226153225 Phases=2

New Load.load_p1ulv8063 conn=wye bus1=p1ulv8063.1.2.3 kV=0.48 Vminpu=0.8 Vmaxpu=1.2 model=1 kW=319.273 kvar=64.83114775660044 Phases=3

New Load.load_p1ulv8064 conn=wye bus1=p1ulv8064.1.2 kV=0.2080002494301389 Vminpu=0.8 Vmaxpu=1.2 model=1 kW=3.46003 kvar=0.7007765735124853 Phases=2

New Load.load_p1ulv8065 conn=wye bus1=p1ulv8065.1.2 kV=0.2080002494301389 Vminpu=0.8 Vmaxpu=1.2 model=1 kW=6.03006 kvar=1.2307519796926671 Phases=2

New Load.load_p1ulv8066 conn=wye bus1=p1ulv8066.1.2 kV=0.2080002494301389 Vminpu=0.8 Vmaxpu=1.2 model=1 kW=11.37 kvar=0.7797494157222552 Phases=2

New Load.load_p1ulv8067 conn=wye bus1=p1ulv8067.1.2 kV=0.2080002494301389 Vminpu=0.8 Vmaxpu=1.2 model=1 kW=11.96 kvar=0.9009717601242447 Phases=2

New Load.load_p1ulv8068 conn=wye bus1=p1ulv8068.1.2 kV=0.2080002494301389 Vminpu=0.8 Vmaxpu=1.2 model=1 kW=3.34003 kvar=0.679967673818805 Phases=2

New Load.load_p1ulv8654 conn=wye bus1=p1ulv8654.1.2 kV=0.2080002494301389 Vminpu=0.8 Vmaxpu=1.2 model=1 kW=3.79004 kvar=0.7696004461493017 Phases=2

New Load.load_p1ulv8656 conn=wye bus1=p1ulv8656.1.2 kV=0.2080002494301389 Vminpu=0.8 Vmaxpu=1.2 model=1 kW=13.0601 kvar=1.129018336644702 Phases=2

New Load.load_p1ulv8659 conn=wye bus1=p1ulv8659.1.2 kV=0.2080002494301389 Vminpu=0.8 Vmaxpu=1.2 model=1 kW=11.82 kvar=0.8794793907851697 Phases=2

New Load.load_p1ulv8660 conn=wye bus1=p1ulv8660.1.2 kV=0.2080002494301389 Vminpu=0.8 Vmaxpu=1.2 model=1 kW=3.76004 kvar=0.7595649045608481 Phases=2

New Load.load_p1ulv8661 conn=wye bus1=p1ulv8661.1.2 kV=0.2080002494301389 Vminpu=0.8 Vmaxpu=1.2 model=1 kW=11.38 kvar=0.7899036155734878 Phases=2

New Load.load_p1ulv8662 conn=wye bus1=p1ulv8662.1.2 kV=0.2080002494301389 Vminpu=0.8 Vmaxpu=1.2 model=1 kW=6.48006 kvar=1.3192190861777544 Phases=2

New Load.load_p1ulv8663 conn=wye bus1=p1ulv8663.1.2 kV=0.2080002494301389 Vminpu=0.8 Vmaxpu=1.2 model=1 kW=11.36 kvar=0.7797658839270477 Phases=2

New Load.load_p1ulv8664 conn=wye bus1=p1ulv8664.1.2 kV=0.2080002494301389 Vminpu=0.8 Vmaxpu=1.2 model=1 kW=11.93 kvar=0.8995579889550643 Phases=2

New Load.load_p1ulv8665 conn=wye bus1=p1ulv8665.1.2 kV=0.2080002494301389 Vminpu=0.8 Vmaxpu=1.2 model=1 kW=11.15 kvar=0.7392602157737106 Phases=2

New Load.load_p1ulv9767 conn=wye bus1=p1ulv9767.1.2 kV=0.2080002494301389 Vminpu=0.8 Vmaxpu=1.2 model=1 kW=3.67004 kvar=0.7394527047982206 Phases=2

New Load.load_p1ulv9768 conn=wye bus1=p1ulv9768.1.2 kV=0.2080002494301389 Vminpu=0.8 Vmaxpu=1.2 model=1 kW=6.11006 kvar=1.2407005999934042 Phases=2

New Load.load_p1ulv9774 conn=wye bus1=p1ulv9774.1.2 kV=0.2080002494301389 Vminpu=0.8 Vmaxpu=1.2 model=1 kW=1.38001 kvar=0.28022298226153225 Phases=2

New Load.load_p1ulv9996 conn=wye bus1=p1ulv9996.1.2 kV=0.2080002494301389 Vminpu=0.8 Vmaxpu=1.2 model=1 kW=1.38001 kvar=0.28022298226153225 Phases=2

New Load.load_p1ulv10156 conn=wye bus1=p1ulv10156.1.2 kV=0.2080002494301389 Vminpu=0.8 Vmaxpu=1.2 model=1 kW=5.27005 kvar=1.0701292944742342 Phases=2

New Load.load_p1ulv10157 conn=wye bus1=p1ulv10157.1.2 kV=0.2080002494301389 Vminpu=0.8 Vmaxpu=1.2 model=1 kW=3.65004 kvar=0.7392602157737106 Phases=2

New Load.load_p1ulv10158 conn=wye bus1=p1ulv10158.1.2 kV=0.2080002494301389 Vminpu=0.8 Vmaxpu=1.2 model=1 kW=3.39003 kvar=0.6901467391837689 Phases=2

New Load.load_p1ulv10159 conn=wye bus1=p1ulv10158.1.2 kV=0.2080002494301389 Vminpu=0.8 Vmaxpu=1.2 model=1 kW=3.48003 kvar=0.71028378024263 Phases=2

New Load.load_p1ulv10160 conn=wye bus1=p1ulv10160.1.2 kV=0.2080002494301389 Vminpu=0.8 Vmaxpu=1.2 model=1 kW=3.49003 kvar=0.7105048699136965 Phases=2

New Load.load_p1ulv10161 conn=wye bus1=p1ulv10161.1.2 kV=0.2080002494301389 Vminpu=0.8 Vmaxpu=1.2 model=1 kW=3.60004 kvar=0.7291334744808246 Phases=2

New Load.load_p1ulv10162 conn=wye bus1=p1ulv10161.1.2 kV=0.2080002494301389 Vminpu=0.8 Vmaxpu=1.2 model=1 kW=3.60004 kvar=0.7291334744808246 Phases=2

New Load.load_p1ulv10163 conn=wye bus1=p1ulv10163.1.2 kV=0.2080002494301389 Vminpu=0.8 Vmaxpu=1.2 model=1 kW=3.90004 kvar=0.7898939222381405 Phases=2

New Load.load_p1ulv10164 conn=wye bus1=p1ulv10164.1.2 kV=0.2080002494301389 Vminpu=0.8 Vmaxpu=1.2 model=1 kW=3.65004 kvar=0.7392602157737106 Phases=2

New Load.load_p1ulv10165 conn=wye bus1=p1ulv10165.1.2 kV=0.2080002494301389 Vminpu=0.8 Vmaxpu=1.2 model=1 kW=3.93004 kvar=0.8000826809384517 Phases=2

New Load.load_p1ulv10166 conn=wye bus1=p1ulv10166.1.2 kV=0.2080002494301389 Vminpu=0.8 Vmaxpu=1.2 model=1 kW=4.26004 kvar=0.8605698013918458 Phases=2

New Load.load_p1ulv10167 conn=wye bus1=p1ulv10167.1.2 kV=0.2080002494301389 Vminpu=0.8 Vmaxpu=1.2 model=1 kW=3.15003 kvar=0.6396408727569326 Phases=2

New Load.load_p1ulv10168 conn=wye bus1=p1ulv10167.1.2 kV=0.2080002494301389 Vminpu=0.8 Vmaxpu=1.2 model=1 kW=3.90004 kvar=0.7898939222381405 Phases=2

New Load.load_p1ulv10169 conn=wye bus1=p1ulv10169.1.2 kV=0.2080002494301389 Vminpu=0.8 Vmaxpu=1.2 model=1 kW=3.46003 kvar=0.7007765735124853 Phases=2

New Load.load_p1ulv10170 conn=wye bus1=p1ulv10169.1.2 kV=0.2080002494301389 Vminpu=0.8 Vmaxpu=1.2 model=1 kW=3.25003 kvar=0.659946738820333 Phases=2

New Load.load_p1ulv10171 conn=wye bus1=p1ulv10171.1.2 kV=0.2080002494301389 Vminpu=0.8 Vmaxpu=1.2 model=1 kW=3.68004 kvar=0.7491873541136322 Phases=2

New Load.load_p1ulv10172 conn=wye bus1=p1ulv10172.1.2 kV=0.2080002494301389 Vminpu=0.8 Vmaxpu=1.2 model=1 kW=3.52004 kvar=0.7202814017128122 Phases=2

New Load.load_p1ulv10173 conn=wye bus1=p1ulv10173.1.2 kV=0.2080002494301389 Vminpu=0.8 Vmaxpu=1.2 model=1 kW=3.56004 kvar=0.7191629458284491 Phases=2

New Load.load_p1ulv10174 conn=wye bus1=p1ulv10173.1.2 kV=0.2080002494301389 Vminpu=0.8 Vmaxpu=1.2 model=1 kW=3.34003 kvar=0.679967673818805 Phases=2

New Load.load_p1ulv10175 conn=wye bus1=p1ulv10175.1.2 kV=0.2080002494301389 Vminpu=0.8 Vmaxpu=1.2 model=1 kW=3.58004 kvar=0.7306960987749602 Phases=2

New Load.load_p1ulv10176 conn=wye bus1=p1ulv10176.1.2 kV=0.2080002494301389 Vminpu=0.8 Vmaxpu=1.2 model=1 kW=3.68004 kvar=0.7491873541136322 Phases=2

New Load.load_p1ulv10177 conn=wye bus1=p1ulv10177.1.2 kV=0.2080002494301389 Vminpu=0.8 Vmaxpu=1.2 model=1 kW=3.82004 kvar=0.7696752379912465 Phases=2

New Load.load_p1ulv10178 conn=wye bus1=p1ulv10178.1.2 kV=0.2080002494301389 Vminpu=0.8 Vmaxpu=1.2 model=1 kW=3.16003 kvar=0.6400161257551694 Phases=2

New Load.load_p1ulv10179 conn=wye bus1=p1ulv10179.1.2 kV=0.2080002494301389 Vminpu=0.8 Vmaxpu=1.2 model=1 kW=3.11003 kvar=0.6298893844622836 Phases=2

New Load.load_p1ulv10180 conn=wye bus1=p1ulv10179.1.2 kV=0.2080002494301389 Vminpu=0.8 Vmaxpu=1.2 model=1 kW=2.91003 kvar=0.5893824192907394 Phases=2

New Load.load_p1ulv10181 conn=wye bus1=p1ulv10181.1.2 kV=0.2080002494301389 Vminpu=0.8 Vmaxpu=1.2 model=1 kW=3.91004 kvar=0.7898663736101474 Phases=2

New Load.load_p1ulv10182 conn=wye bus1=p1ulv10182.1.2 kV=0.2080002494301389 Vminpu=0.8 Vmaxpu=1.2 model=1 kW=3.49003 kvar=0.7105048699136965 Phases=2

New Load.load_p1ulv10183 conn=wye bus1=p1ulv10183.1.2 kV=0.2080002494301389 Vminpu=0.8 Vmaxpu=1.2 model=1 kW=3.55004 kvar=0.7208663675971405 Phases=2

New Load.load_p1ulv10184 conn=wye bus1=p1ulv10184.1.2 kV=0.2080002494301389 Vminpu=0.8 Vmaxpu=1.2 model=1 kW=3.91004 kvar=0.7898663736101474 Phases=2

New Load.load_p1ulv10185 conn=wye bus1=p1ulv10185.1.2 kV=0.2080002494301389 Vminpu=0.8 Vmaxpu=1.2 model=1 kW=4.29004 kvar=0.8711297764663039 Phases=2

New Load.load_p1ulv10186 conn=wye bus1=p1ulv10186.1.2 kV=0.2080002494301389 Vminpu=0.8 Vmaxpu=1.2 model=1 kW=3.38003 kvar=0.6898735027380501 Phases=2

New Load.load_p1ulv10187 conn=wye bus1=p1ulv10187.1.2 kV=0.2080002494301389 Vminpu=0.8 Vmaxpu=1.2 model=1 kW=3.48003 kvar=0.71028378024263 Phases=2

New Load.load_p1ulv10188 conn=wye bus1=p1ulv10188.1.2 kV=0.2080002494301389 Vminpu=0.8 Vmaxpu=1.2 model=1 kW=4.30004 kvar=0.8709078525812284 Phases=2

New Load.load_p1ulv10189 conn=wye bus1=p1ulv10189.1.2 kV=0.2080002494301389 Vminpu=0.8 Vmaxpu=1.2 model=1 kW=3.7100400000000002 kvar=0.7494644148777485 Phases=2

New Load.load_p1ulv10190 conn=wye bus1=p1ulv10190.1.2 kV=0.2080002494301389 Vminpu=0.8 Vmaxpu=1.2 model=1 kW=3.20003 kvar=0.6497938057886328 Phases=2

New Load.load_p1ulv10191 conn=wye bus1=p1ulv10190.1.2 kV=0.2080002494301389 Vminpu=0.8 Vmaxpu=1.2 model=1 kW=3.57004 kvar=0.7193043493362031 Phases=2

New Load.load_p1ulv10192 conn=wye bus1=p1ulv10192.1.2 kV=0.2080002494301389 Vminpu=0.8 Vmaxpu=1.2 model=1 kW=4.11004 kvar=0.8410090147543001 Phases=2

New Load.load_p1ulv10193 conn=wye bus1=p1ulv10193.1.2 kV=0.2080002494301389 Vminpu=0.8 Vmaxpu=1.2 model=1 kW=4.10004 kvar=0.8304008874096844 Phases=2

New Load.load_p1ulv10194 conn=wye bus1=p1ulv10194.1.2 kV=0.2080002494301389 Vminpu=0.8 Vmaxpu=1.2 model=1 kW=3.44003 kvar=0.7003258045487328 Phases=2

New Load.load_p1ulv10195 conn=wye bus1=p1ulv10195.1.2 kV=0.2080002494301389 Vminpu=0.8 Vmaxpu=1.2 model=1 kW=3.10003 kvar=0.6294879397252322 Phases=2

New Load.load_p1ulv10196 conn=wye bus1=p1ulv10196.1.2 kV=0.2080002494301389 Vminpu=0.8 Vmaxpu=1.2 model=1 kW=3.99004 kvar=0.8102121782761024 Phases=2

New Load.load_p1ulv10197 conn=wye bus1=p1ulv10197.1.2 kV=0.2080002494301389 Vminpu=0.8 Vmaxpu=1.2 model=1 kW=3.7500400000000003 kvar=0.7595136983594827 Phases=2

New Load.load_p1ulv10198 conn=wye bus1=p1ulv10198.1.2 kV=0.2080002494301389 Vminpu=0.8 Vmaxpu=1.2 model=1 kW=3.39003 kvar=0.6901467391837689 Phases=2

New Load.load_p1ulv10199 conn=wye bus1=p1ulv10198.1.2 kV=0.2080002494301389 Vminpu=0.8 Vmaxpu=1.2 model=1 kW=3.20003 kvar=0.6497938057886328 Phases=2

New Load.load_p1ulv10205 conn=wye bus1=p1ulv10205.1.2 kV=0.2080002494301389 Vminpu=0.8 Vmaxpu=1.2 model=1 kW=4.2400400000000005 kvar=0.8609768434346036 Phases=2

New Load.load_p1ulv10206 conn=wye bus1=p1ulv10206.1.2 kV=0.2080002494301389 Vminpu=0.8 Vmaxpu=1.2 model=1 kW=4.200040000000001 kvar=0.8506543699954566 Phases=2

New Load.load_p1ulv10207 conn=wye bus1=p1ulv10207.1.2 kV=0.2080002494301389 Vminpu=0.8 Vmaxpu=1.2 model=1 kW=3.82004 kvar=0.7796807647859518 Phases=2

New Load.load_p1ulv10208 conn=wye bus1=p1ulv10207.1.2 kV=0.2080002494301389 Vminpu=0.8 Vmaxpu=1.2 model=1 kW=3.81004 kvar=0.769665394243948 Phases=2

New Load.load_p1ulv10209 conn=wye bus1=p1ulv10209.1.2 kV=0.2080002494301389 Vminpu=0.8 Vmaxpu=1.2 model=1 kW=3.48003 kvar=0.71028378024263 Phases=2

New Load.load_p1ulv10210 conn=wye bus1=p1ulv10210.1.2 kV=0.2080002494301389 Vminpu=0.8 Vmaxpu=1.2 model=1 kW=3.51004 kvar=0.7109053401536299 Phases=2

New Load.load_p1ulv10211 conn=wye bus1=p1ulv10211.1.2 kV=0.2080002494301389 Vminpu=0.8 Vmaxpu=1.2 model=1 kW=3.35003 kvar=0.6802526048837334 Phases=2

New Load.load_p1ulv10212 conn=wye bus1=p1ulv10212.1.2 kV=0.2080002494301389 Vminpu=0.8 Vmaxpu=1.2 model=1 kW=3.31003 kvar=0.6703963496338274 Phases=2

New Load.load_p1ulv10213 conn=wye bus1=p1ulv10213.1.2 kV=0.2080002494301389 Vminpu=0.8 Vmaxpu=1.2 model=1 kW=3.23003 kvar=0.6507979259297981 Phases=2

New Load.load_p1ulv10214 conn=wye bus1=p1ulv10214.1.2 kV=0.2080002494301389 Vminpu=0.8 Vmaxpu=1.2 model=1 kW=3.86004 kvar=0.7797658839270477 Phases=2

New Load.load_p1ulv10215 conn=wye bus1=p1ulv10215.1.2 kV=0.2080002494301389 Vminpu=0.8 Vmaxpu=1.2 model=1 kW=4.79005 kvar=0.9701519425997696 Phases=2

New Load.load_p1ulv10216 conn=wye bus1=p1ulv10216.1.2 kV=0.2080002494301389 Vminpu=0.8 Vmaxpu=1.2 model=1 kW=4.95005 kvar=1.0103189416154545 Phases=2

New Load.load_p1ulv10217 conn=wye bus1=p1ulv10216.1.2 kV=0.2080002494301389 Vminpu=0.8 Vmaxpu=1.2 model=1 kW=5.35005 kvar=1.0891701731164982 Phases=2

New Load.load_p1ulv10218 conn=wye bus1=p1ulv10215.1.2 kV=0.2080002494301389 Vminpu=0.8 Vmaxpu=1.2 model=1 kW=5.15005 kvar=1.040360537848958 Phases=2

New Load.load_p1ulv10219 conn=wye bus1=p1ulv10219.1.2 kV=0.2080002494301389 Vminpu=0.8 Vmaxpu=1.2 model=1 kW=4.61005 kvar=0.9409239980998833 Phases=2

New Load.load_p1ulv11612 conn=wye bus1=p1ulv10156.1.2 kV=0.2080002494301389 Vminpu=0.8 Vmaxpu=1.2 model=1 kW=5.39005 kvar=1.088842888327837 Phases=2

New Load.load_p1ulv13122 conn=wye bus1=p1ulv13122.1.2 kV=0.2080002494301389 Vminpu=0.8 Vmaxpu=1.2 model=1 kW=6.020060000000001 kvar=1.219271803753023 Phases=2

New Load.load_p1ulv13295 conn=wye bus1=p1ulv13295.1.2 kV=0.2080002494301389 Vminpu=0.8 Vmaxpu=1.2 model=1 kW=3.34003 kvar=0.679967673818805 Phases=2

New Load.load_p1ulv13342 conn=wye bus1=p1ulv13342.1.2 kV=0.2080002494301389 Vminpu=0.8 Vmaxpu=1.2 model=1 kW=4.15004 kvar=0.8405276287025704 Phases=2

New Load.load_p1ulv13355 conn=wye bus1=p1ulv13355.1.2 kV=0.2080002494301389 Vminpu=0.8 Vmaxpu=1.2 model=1 kW=2.09002 kvar=0.42000226641916955 Phases=2

New Load.load_p1ulv13389 conn=wye bus1=p1ulv13389.1.2 kV=0.2080002494301389 Vminpu=0.8 Vmaxpu=1.2 model=1 kW=3.89004 kvar=0.789906312212702 Phases=2

New Load.load_p1ulv13545 conn=wye bus1=p1ulv13545.1.2 kV=0.2080002494301389 Vminpu=0.8 Vmaxpu=1.2 model=1 kW=6.76007 kvar=1.3691496002359942 Phases=2

New Load.load_p1ulv13686 conn=wye bus1=p1ulv13686.1.2 kV=0.2080002494301389 Vminpu=0.8 Vmaxpu=1.2 model=1 kW=3.0700300000000005 kvar=0.620176126836135 Phases=2

New Load.load_p1ulv13808 conn=wye bus1=p1ulv13808.1.2 kV=0.2080002494301389 Vminpu=0.8 Vmaxpu=1.2 model=1 kW=3.58004 kvar=0.7306960987749602 Phases=2

New Load.load_p1ulv14051 conn=wye bus1=p1ulv14051.1.2 kV=0.2080002494301389 Vminpu=0.8 Vmaxpu=1.2 model=1 kW=3.83004 kvar=0.7797245502085238 Phases=2

New Load.load_p1ulv14090 conn=wye bus1=p1ulv14090.1.2 kV=0.2080002494301389 Vminpu=0.8 Vmaxpu=1.2 model=1 kW=3.89004 kvar=0.789906312212702 Phases=2

New Load.load_p1ulv14636 conn=wye bus1=p1ulv14636.1.2 kV=0.2080002494301389 Vminpu=0.8 Vmaxpu=1.2 model=1 kW=4.47004 kvar=0.9100165868800613 Phases=2

New Load.load_p1ulv14870 conn=wye bus1=p1ulv14870.1.2 kV=0.2080002494301389 Vminpu=0.8 Vmaxpu=1.2 model=1 kW=3.85004 kvar=0.7797671809452545 Phases=2

New Load.load_p1ulv14917 conn=wye bus1=p1ulv14917.1.2 kV=0.2080002494301389 Vminpu=0.8 Vmaxpu=1.2 model=1 kW=5.600060000000001 kvar=1.1400675357543906 Phases=2

New Load.load_p1ulv15019 conn=wye bus1=p1ulv15019.1.2 kV=0.2080002494301389 Vminpu=0.8 Vmaxpu=1.2 model=1 kW=7.030070000000001 kvar=1.43119084100543 Phases=2

New Load.load_p1ulv15154 conn=wye bus1=p1ulv15154.1.2 kV=0.2080002494301389 Vminpu=0.8 Vmaxpu=1.2 model=1 kW=3.91004 kvar=0.7898663736101474 Phases=2

New Load.load_p1ulv15229 conn=wye bus1=p1ulv15229.1.2 kV=0.2080002494301389 Vminpu=0.8 Vmaxpu=1.2 model=1 kW=5.600060000000001 kvar=1.1400675357543906 Phases=2

New Load.load_p1ulv15309 conn=wye bus1=p1ulv15309.1.2 kV=0.2080002494301389 Vminpu=0.8 Vmaxpu=1.2 model=1 kW=4.35004 kvar=0.8810345938741143 Phases=2

New Load.load_p1ulv15360 conn=wye bus1=p1ulv15360.1.2 kV=0.2080002494301389 Vminpu=0.8 Vmaxpu=1.2 model=1 kW=4.11004 kvar=0.8302683323425464 Phases=2

New Load.load_p1ulv15392 conn=wye bus1=p1ulv15392.1.2 kV=0.2080002494301389 Vminpu=0.8 Vmaxpu=1.2 model=1 kW=2.97003 kvar=0.5999751474699353 Phases=2

New Load.load_p1ulv15514 conn=wye bus1=p1ulv15514.1.2 kV=0.2080002494301389 Vminpu=0.8 Vmaxpu=1.2 model=1 kW=3.9800400000000002 kvar=0.8102617463034154 Phases=2

New Load.load_p1ulv15560 conn=wye bus1=p1ulv15560.1.2 kV=0.2080002494301389 Vminpu=0.8 Vmaxpu=1.2 model=1 kW=3.70004 kvar=0.7493869570665965 Phases=2

New Load.load_p1ulv15561 conn=wye bus1=p1ulv15561.1.2 kV=0.2080002494301389 Vminpu=0.8 Vmaxpu=1.2 model=1 kW=3.19003 kvar=0.6494304777239135 Phases=2

New Load.load_p1ulv15607 conn=wye bus1=p1ulv15607.1.2 kV=0.2080002494301389 Vminpu=0.8 Vmaxpu=1.2 model=1 kW=1.38001 kvar=0.28022298226153225 Phases=2

New Load.load_p1ulv16452 conn=wye bus1=p1ulv16452.1.2 kV=0.2080002494301389 Vminpu=0.8 Vmaxpu=1.2 model=1 kW=3.81004 kvar=0.769665394243948 Phases=2

New Load.load_p1ulv16491 conn=wye bus1=p1ulv16491.1.2 kV=0.2080002494301389 Vminpu=0.8 Vmaxpu=1.2 model=1 kW=4.14004 kvar=0.8406709773712032 Phases=2

New Load.load_p1ulv16548 conn=wye bus1=p1ulv16548.1.2 kV=0.2080002494301389 Vminpu=0.8 Vmaxpu=1.2 model=1 kW=6.43006 kvar=1.3090400208127908 Phases=2

New Load.load_p1ulv16629 conn=wye bus1=p1ulv16629.1.2 kV=0.2080002494301389 Vminpu=0.8 Vmaxpu=1.2 model=1 kW=3.70004 kvar=0.7493869570665965 Phases=2

New Load.load_p1ulv16732 conn=wye bus1=p1ulv16732.1.2 kV=0.2080002494301389 Vminpu=0.8 Vmaxpu=1.2 model=1 kW=4.37004 kvar=0.8896584561501336 Phases=2

New Load.load_p1ulv17018 conn=wye bus1=p1ulv17018.1.2 kV=0.2080002494301389 Vminpu=0.8 Vmaxpu=1.2 model=1 kW=6.26006 kvar=1.2711593990885048 Phases=2

New Load.load_p1ulv17154 conn=wye bus1=p1ulv17154.1.2 kV=0.2080002494301389 Vminpu=0.8 Vmaxpu=1.2 model=1 kW=3.92004 kvar=0.8000910422905317 Phases=2

New Load.load_p1ulv17353 conn=wye bus1=p1ulv17353.1.2 kV=0.2080002494301389 Vminpu=0.8 Vmaxpu=1.2 model=1 kW=3.77004 kvar=0.7694756260336619 Phases=2

New Load.load_p1ulv17391 conn=wye bus1=p1ulv17391.1.2 kV=0.2080002494301389 Vminpu=0.8 Vmaxpu=1.2 model=1 kW=3.70004 kvar=0.7493869570665965 Phases=2

New Load.load_p1ulv18100 conn=wye bus1=p1ulv18100.1.2 kV=0.2080002494301389 Vminpu=0.8 Vmaxpu=1.2 model=1 kW=4.32004 kvar=0.8794793907851697 Phases=2

New Load.load_p1ulv18242 conn=wye bus1=p1ulv18242.1.2 kV=0.2080002494301389 Vminpu=0.8 Vmaxpu=1.2 model=1 kW=4.35004 kvar=0.8810345938741143 Phases=2

New Load.load_p1ulv18346 conn=wye bus1=p1ulv18346.1.2 kV=0.2080002494301389 Vminpu=0.8 Vmaxpu=1.2 model=1 kW=3.83004 kvar=0.7797245502085238 Phases=2

New Load.load_p1ulv18380 conn=wye bus1=p1ulv18380.1.2 kV=0.2080002494301389 Vminpu=0.8 Vmaxpu=1.2 model=1 kW=3.11003 kvar=0.6298893844622836 Phases=2

New Load.load_p1ulv18427 conn=wye bus1=p1ulv18427.1.2 kV=0.2080002494301389 Vminpu=0.8 Vmaxpu=1.2 model=1 kW=5.19005 kvar=1.0511658729428572 Phases=2

New Load.load_p1ulv18524 conn=wye bus1=p1ulv18524.1.2 kV=0.2080002494301389 Vminpu=0.8 Vmaxpu=1.2 model=1 kW=4.10004 kvar=0.8304008874096844 Phases=2

New Load.load_p1ulv18547 conn=wye bus1=p1ulv18547.1.2 kV=0.2080002494301389 Vminpu=0.8 Vmaxpu=1.2 model=1 kW=4.95005 kvar=1.0103189416154545 Phases=2

New Load.load_p1ulv18681 conn=wye bus1=p1ulv18681.1.2 kV=0.2080002494301389 Vminpu=0.8 Vmaxpu=1.2 model=1 kW=3.2600300000000004 kvar=0.6602696083409414 Phases=2

New Load.load_p1ulv18806 conn=wye bus1=p1ulv18806.1.2 kV=0.2080002494301389 Vminpu=0.8 Vmaxpu=1.2 model=1 kW=3.22003 kvar=0.6504775958854341 Phases=2

New Load.load_p1ulv18898 conn=wye bus1=p1ulv18898.1.2 kV=0.2080002494301389 Vminpu=0.8 Vmaxpu=1.2 model=1 kW=1.79002 kvar=0.35971543666359257 Phases=2

New Load.load_p1ulv18941 conn=wye bus1=p1ulv18941.1.2 kV=0.2080002494301389 Vminpu=0.8 Vmaxpu=1.2 model=1 kW=3.21003 kvar=0.6501428670480555 Phases=2

New Load.load_p1ulv19088 conn=wye bus1=p1ulv19088.1.2 kV=0.2080002494301389 Vminpu=0.8 Vmaxpu=1.2 model=1 kW=3.91004 kvar=0.7898663736101474 Phases=2

New Load.load_p1ulv19778 conn=wye bus1=p1ulv19778.1.2 kV=0.2080002494301389 Vminpu=0.8 Vmaxpu=1.2 model=1 kW=3.91004 kvar=0.7898663736101474 Phases=2

New Load.load_p1ulv19880 conn=wye bus1=p1ulv19880.1.2 kV=0.2080002494301389 Vminpu=0.8 Vmaxpu=1.2 model=1 kW=4.35004 kvar=0.8810345938741143 Phases=2

New Load.load_p1ulv19883 conn=wye bus1=p1ulv19883.1.2 kV=0.2080002494301389 Vminpu=0.8 Vmaxpu=1.2 model=1 kW=4.10004 kvar=0.8304008874096844 Phases=2

New Load.load_p1ulv20070 conn=wye bus1=p1ulv20070.1.2 kV=0.2080002494301389 Vminpu=0.8 Vmaxpu=1.2 model=1 kW=4.16004 kvar=0.8490757083015232 Phases=2

New Load.load_p1ulv20466 conn=wye bus1=p1ulv20466.1.2 kV=0.2080002494301389 Vminpu=0.8 Vmaxpu=1.2 model=1 kW=4.46004 kvar=0.910306540815263 Phases=2

New Load.load_p1ulv20533 conn=wye bus1=p1ulv20533.1.2 kV=0.2080002494301389 Vminpu=0.8 Vmaxpu=1.2 model=1 kW=3.63004 kvar=0.7409012375272501 Phases=2

New Load.load_p1ulv21400 conn=wye bus1=p1ulv21400.1.2 kV=0.2080002494301389 Vminpu=0.8 Vmaxpu=1.2 model=1 kW=3.7300400000000002 kvar=0.7593664194785962 Phases=2

New Load.load_p1ulv21498 conn=wye bus1=p1ulv21498.1.2 kV=0.2080002494301389 Vminpu=0.8 Vmaxpu=1.2 model=1 kW=4.12004 kvar=0.8409115972996914 Phases=2

New Load.load_p1ulv21542 conn=wye bus1=p1ulv21542.1.2 kV=0.2080002494301389 Vminpu=0.8 Vmaxpu=1.2 model=1 kW=1.57002 kvar=0.3196267240860112 Phases=2

New Load.load_p1ulv21626 conn=wye bus1=p1ulv21626.1.2 kV=0.2080002494301389 Vminpu=0.8 Vmaxpu=1.2 model=1 kW=4.60005 kvar=0.9292551513348608 Phases=2

New Load.load_p1ulv21657 conn=wye bus1=p1ulv21657.1.2 kV=0.2080002494301389 Vminpu=0.8 Vmaxpu=1.2 model=1 kW=3.47003 kvar=0.6991539790386396 Phases=2

New Load.load_p1ulv21851 conn=wye bus1=p1ulv21851.1.2 kV=0.2080002494301389 Vminpu=0.8 Vmaxpu=1.2 model=1 kW=4.05004 kvar=0.8202741461167985 Phases=2

New Load.load_p1ulv21888 conn=wye bus1=p1ulv21888.1.2 kV=0.2080002494301389 Vminpu=0.8 Vmaxpu=1.2 model=1 kW=4.10004 kvar=0.8304008874096844 Phases=2

New Load.load_p1ulv21933 conn=wye bus1=p1ulv21933.1.2 kV=0.2080002494301389 Vminpu=0.8 Vmaxpu=1.2 model=1 kW=8.69009 kvar=1.7600458648379103 Phases=2

New Load.load_p1ulv22307 conn=wye bus1=p1ulv22307.1.2 kV=0.2080002494301389 Vminpu=0.8 Vmaxpu=1.2 model=1 kW=4.27004 kvar=0.869300325420206 Phases=2

New Load.load_p1ulv22407 conn=wye bus1=p1ulv22407.1.2 kV=0.2080002494301389 Vminpu=0.8 Vmaxpu=1.2 model=1 kW=3.72004 kvar=0.7592704872813721 Phases=2

New Load.load_p1ulv23119 conn=wye bus1=p1ulv23119.1.2 kV=0.2080002494301389 Vminpu=0.8 Vmaxpu=1.2 model=1 kW=4.06004 kvar=0.8201678426594468 Phases=2

New Load.load_p1ulv23217 conn=wye bus1=p1ulv23217.1.2 kV=0.2080002494301389 Vminpu=0.8 Vmaxpu=1.2 model=1 kW=5.25005 kvar=1.0688120423865706 Phases=2

New Load.load_p1ulv23364 conn=wye bus1=p1ulv23364.1.2 kV=0.2080002494301389 Vminpu=0.8 Vmaxpu=1.2 model=1 kW=3.65004 kvar=0.7392602157737106 Phases=2

New Load.load_p1ulv23410 conn=wye bus1=p1ulv23410.1.2 kV=0.2080002494301389 Vminpu=0.8 Vmaxpu=1.2 model=1 kW=3.65004 kvar=0.7392602157737106 Phases=2

New Load.load_p1ulv23643 conn=wye bus1=p1ulv23643.1.2 kV=0.2080002494301389 Vminpu=0.8 Vmaxpu=1.2 model=1 kW=4.590050000000001 kvar=0.9296449774282256 Phases=2

New Load.load_p1ulv23644 conn=wye bus1=p1ulv23644.1.2.3 kV=0.48 Vminpu=0.8 Vmaxpu=1.2 model=1 kW=33.0103 kvar=6.703027305126672 Phases=3

New Load.load_p1ulv23756 conn=wye bus1=p1ulv23756.1.2 kV=0.2080002494301389 Vminpu=0.8 Vmaxpu=1.2 model=1 kW=4.27004 kvar=0.869300325420206 Phases=2

New Load.load_p1ulv23904 conn=wye bus1=p1ulv23904.1.2 kV=0.2080002494301389 Vminpu=0.8 Vmaxpu=1.2 model=1 kW=4.60005 kvar=0.9292551513348608 Phases=2

New Load.load_p1ulv23977 conn=wye bus1=p1ulv23977.1.2 kV=0.2080002494301389 Vminpu=0.8 Vmaxpu=1.2 model=1 kW=4.66005 kvar=0.951129136852173 Phases=2

New Load.load_p1ulv23987 conn=wye bus1=p1ulv23987.1.2 kV=0.2080002494301389 Vminpu=0.8 Vmaxpu=1.2 model=1 kW=4.18004 kvar=0.8509780077632708 Phases=2

New Load.load_p1ulv24625 conn=wye bus1=p1ulv24625.1.2 kV=0.2080002494301389 Vminpu=0.8 Vmaxpu=1.2 model=1 kW=3.9400400000000007 kvar=0.8000592452444024 Phases=2

New Load.load_p1ulv24787 conn=wye bus1=p1ulv24787.1.2 kV=0.2080002494301389 Vminpu=0.8 Vmaxpu=1.2 model=1 kW=5.74006 kvar=1.1685689187762893 Phases=2

New Load.load_p1ulv24879 conn=wye bus1=p1ulv24879.1.2 kV=0.2080002494301389 Vminpu=0.8 Vmaxpu=1.2 model=1 kW=3.54004 kvar=0.7206859710917335 Phases=2

New Load.load_p1ulv25145 conn=wye bus1=p1ulv25145.1.2 kV=0.2080002494301389 Vminpu=0.8 Vmaxpu=1.2 model=1 kW=3.60004 kvar=0.7291334744808246 Phases=2

New Load.load_p1ulv25209 conn=wye bus1=p1ulv25209.1.2 kV=0.2080002494301389 Vminpu=0.8 Vmaxpu=1.2 model=1 kW=3.85004 kvar=0.7797671809452545 Phases=2

New Load.load_p1ulv25219 conn=wye bus1=p1ulv25219.1.2 kV=0.2080002494301389 Vminpu=0.8 Vmaxpu=1.2 model=1 kW=5.44005 kvar=1.0989433780109366 Phases=2

New Load.load_p1ulv25253 conn=wye bus1=p1ulv25253.1.2 kV=0.2080002494301389 Vminpu=0.8 Vmaxpu=1.2 model=1 kW=2.70003 kvar=0.5496756371472675 Phases=2

New Load.load_p1ulv25624 conn=wye bus1=p1ulv25624.1.2 kV=0.2080002494301389 Vminpu=0.8 Vmaxpu=1.2 model=1 kW=6.55007 kvar=1.3300484412589724 Phases=2

New Load.load_p1ulv25788 conn=wye bus1=p1ulv25788.1.2 kV=0.2080002494301389 Vminpu=0.8 Vmaxpu=1.2 model=1 kW=3.77004 kvar=0.7694756260336619 Phases=2

New Load.load_p1ulv25920 conn=wye bus1=p1ulv25920.1.2 kV=0.2080002494301389 Vminpu=0.8 Vmaxpu=1.2 model=1 kW=4.78005 kvar=0.9706305507635722 Phases=2

New Load.load_p1ulv25994 conn=wye bus1=p1ulv25994.1.2 kV=0.2080002494301389 Vminpu=0.8 Vmaxpu=1.2 model=1 kW=3.91004 kvar=0.7898663736101474 Phases=2

New Load.load_p1ulv26012 conn=wye bus1=p1ulv26012.1.2 kV=0.2080002494301389 Vminpu=0.8 Vmaxpu=1.2 model=1 kW=4.08004 kvar=0.8306198770333432 Phases=2

New Load.load_p1ulv26046 conn=wye bus1=p1ulv26046.1.2 kV=0.2080002494301389 Vminpu=0.8 Vmaxpu=1.2 model=1 kW=5.29005 kvar=1.0686419089616372 Phases=2

New Load.load_p1ulv26080 conn=wye bus1=p1ulv26080.1.2 kV=0.2080002494301389 Vminpu=0.8 Vmaxpu=1.2 model=1 kW=3.99004 kvar=0.8102121782761024 Phases=2

New Load.load_p1ulv26146 conn=wye bus1=p1ulv26146.1.2 kV=0.2080002494301389 Vminpu=0.8 Vmaxpu=1.2 model=1 kW=3.68004 kvar=0.7491873541136322 Phases=2

New Load.load_p1ulv26174 conn=wye bus1=p1ulv26174.1.2 kV=0.2080002494301389 Vminpu=0.8 Vmaxpu=1.2 model=1 kW=4.78005 kvar=0.9706305507635722 Phases=2

New Load.load_p1ulv26247 conn=wye bus1=p1ulv26247.1.2 kV=0.2080002494301389 Vminpu=0.8 Vmaxpu=1.2 model=1 kW=4.73005 kvar=0.960477617731872 Phases=2

New Load.load_p1ulv26349 conn=wye bus1=p1ulv26349.1.2 kV=0.2080002494301389 Vminpu=0.8 Vmaxpu=1.2 model=1 kW=3.93004 kvar=0.8000826809384517 Phases=2

New Load.load_p1ulv26382 conn=wye bus1=p1ulv26382.1.2 kV=0.2080002494301389 Vminpu=0.8 Vmaxpu=1.2 model=1 kW=15.0502 kvar=3.063939391115583 Phases=2

New Load.load_p1ulv26427 conn=wye bus1=p1ulv26427.1.2 kV=0.2080002494301389 Vminpu=0.8 Vmaxpu=1.2 model=1 kW=3.74004 kvar=0.7594475131176014 Phases=2

New Load.load_p1ulv26458 conn=wye bus1=p1ulv26458.1.2 kV=0.2080002494301389 Vminpu=0.8 Vmaxpu=1.2 model=1 kW=4.23004 kvar=0.8589462568282636 Phases=2

New Load.load_p1ulv26526 conn=wye bus1=p1ulv26526.1.2 kV=0.2080002494301389 Vminpu=0.8 Vmaxpu=1.2 model=1 kW=4.98005 kvar=1.011242282890373 Phases=2

New Load.load_p1ulv26622 conn=wye bus1=p1ulv26622.1.2 kV=0.2080002494301389 Vminpu=0.8 Vmaxpu=1.2 model=1 kW=4.22004 kvar=0.8591212600552419 Phases=2

New Load.load_p1ulv26744 conn=wye bus1=p1ulv26744.1.2 kV=0.2080002494301389 Vminpu=0.8 Vmaxpu=1.2 model=1 kW=5.340050000000001 kvar=1.078742398644737 Phases=2

New Load.load_p1ulv26782 conn=wye bus1=p1ulv26782.1.2 kV=0.2080002494301389 Vminpu=0.8 Vmaxpu=1.2 model=1 kW=4.36004 kvar=0.8898962633106831 Phases=2

New Load.load_p1ulv26838 conn=wye bus1=p1ulv26838.1.2 kV=0.2080002494301389 Vminpu=0.8 Vmaxpu=1.2 model=1 kW=4.42004 kvar=0.8998375215150975 Phases=2

New Load.load_p1ulv26871 conn=wye bus1=p1ulv26871.1.2 kV=0.2080002494301389 Vminpu=0.8 Vmaxpu=1.2 model=1 kW=2.14002 kvar=0.4300500713784323 Phases=2

New Load.load_p1ulv26902 conn=wye bus1=p1ulv26902.1.2 kV=0.2080002494301389 Vminpu=0.8 Vmaxpu=1.2 model=1 kW=4.22004 kvar=0.8591212600552419 Phases=2

New Load.load_p1ulv26942 conn=wye bus1=p1ulv26942.1.2 kV=0.2080002494301389 Vminpu=0.8 Vmaxpu=1.2 model=1 kW=3.85004 kvar=0.7797671809452545 Phases=2

New Load.load_p1ulv26977 conn=wye bus1=p1ulv26977.1.2 kV=0.2080002494301389 Vminpu=0.8 Vmaxpu=1.2 model=1 kW=7.46007 kvar=1.5187308031441193 Phases=2

New Load.load_p1ulv27009 conn=wye bus1=p1ulv27009.1.2 kV=0.2080002494301389 Vminpu=0.8 Vmaxpu=1.2 model=1 kW=4.11004 kvar=0.8302683323425464 Phases=2

New Load.load_p1ulv27044 conn=wye bus1=p1ulv27044.1.2 kV=0.2080002494301389 Vminpu=0.8 Vmaxpu=1.2 model=1 kW=3.9600400000000002 kvar=0.7999668632932473 Phases=2

New Load.load_p1ulv27115 conn=wye bus1=p1ulv27115.1.2 kV=0.2080002494301389 Vminpu=0.8 Vmaxpu=1.2 model=1 kW=4.14004 kvar=0.8406709773712032 Phases=2

New Load.load_p1ulv27158 conn=wye bus1=p1ulv27158.1.2 kV=0.2080002494301389 Vminpu=0.8 Vmaxpu=1.2 model=1 kW=3.3200300000000005 kvar=0.6706785752516337 Phases=2

New Load.load_p1ulv27196 conn=wye bus1=p1ulv27196.1.2 kV=0.2080002494301389 Vminpu=0.8 Vmaxpu=1.2 model=1 kW=4.07004 kvar=0.8307064585474014 Phases=2

New Load.load_p1ulv27224 conn=wye bus1=p1ulv27224.1.2.3 kV=0.48 Vminpu=0.8 Vmaxpu=1.2 model=1 kW=43.0404 kvar=8.739725977151796 Phases=3

New Load.load_p1ulv27262 conn=wye bus1=p1ulv27262.1.2 kV=0.2080002494301389 Vminpu=0.8 Vmaxpu=1.2 model=1 kW=1.38001 kvar=0.28022298226153225 Phases=2

New Load.load_p1ulv27290 conn=wye bus1=p1ulv27290.1.2 kV=0.2080002494301389 Vminpu=0.8 Vmaxpu=1.2 model=1 kW=4.00004 kvar=0.8101474048239126 Phases=2

New Load.load_p1ulv27327 conn=wye bus1=p1ulv27327.1.2 kV=0.2080002494301389 Vminpu=0.8 Vmaxpu=1.2 model=1 kW=3.66004 kvar=0.7393639251946486 Phases=2

New Load.load_p1ulv27355 conn=wye bus1=p1ulv27355.1.2 kV=0.2080002494301389 Vminpu=0.8 Vmaxpu=1.2 model=1 kW=4.35004 kvar=0.8810345938741143 Phases=2

New Load.load_p1ulv27586 conn=wye bus1=p1ulv27586.1.2 kV=0.2080002494301389 Vminpu=0.8 Vmaxpu=1.2 model=1 kW=4.62005 kvar=0.940555818788026 Phases=2

New Load.load_p1ulv27666 conn=wye bus1=p1ulv27666.1.2 kV=0.2080002494301389 Vminpu=0.8 Vmaxpu=1.2 model=1 kW=4.30004 kvar=0.8709078525812284 Phases=2

New Load.load_p1ulv27693 conn=wye bus1=p1ulv27693.1.2 kV=0.2080002494301389 Vminpu=0.8 Vmaxpu=1.2 model=1 kW=4.57005 kvar=0.9303767534230621 Phases=2

New Load.load_p1ulv27760 conn=wye bus1=p1ulv27760.1.2 kV=0.2080002494301389 Vminpu=0.8 Vmaxpu=1.2 model=1 kW=4.06004 kvar=0.8201678426594468 Phases=2

New Load.load_p1ulv27796 conn=wye bus1=p1ulv27796.1.2 kV=0.2080002494301389 Vminpu=0.8 Vmaxpu=1.2 model=1 kW=4.14004 kvar=0.8406709773712032 Phases=2

New Load.load_p1ulv27827 conn=wye bus1=p1ulv27827.1.2 kV=0.2080002494301389 Vminpu=0.8 Vmaxpu=1.2 model=1 kW=5.66006 kvar=1.149324202708102 Phases=2

New Load.load_p1ulv27871 conn=wye bus1=p1ulv27871.1.2 kV=0.2080002494301389 Vminpu=0.8 Vmaxpu=1.2 model=1 kW=4.13004 kvar=0.840798942398307 Phases=2

New Load.load_p1ulv27964 conn=wye bus1=p1ulv27964.1.2 kV=0.2080002494301389 Vminpu=0.8 Vmaxpu=1.2 model=1 kW=4.08004 kvar=0.8306198770333432 Phases=2

New Load.load_p1ulv28006 conn=wye bus1=p1ulv28006.1.2 kV=0.2080002494301389 Vminpu=0.8 Vmaxpu=1.2 model=1 kW=3.68004 kvar=0.7491873541136322 Phases=2

New Load.load_p1ulv28111 conn=wye bus1=p1ulv28111.1.2 kV=0.2080002494301389 Vminpu=0.8 Vmaxpu=1.2 model=1 kW=5.88006 kvar=1.1909169281329426 Phases=2

New Load.load_p1ulv28182 conn=wye bus1=p1ulv28182.1.2 kV=0.2080002494301389 Vminpu=0.8 Vmaxpu=1.2 model=1 kW=4.01004 kvar=0.810067352976347 Phases=2

New Load.load_p1ulv28280 conn=wye bus1=p1ulv28280.1.2 kV=0.2080002494301389 Vminpu=0.8 Vmaxpu=1.2 model=1 kW=4.22004 kvar=0.8591212600552419 Phases=2

New Load.load_p1ulv28309 conn=wye bus1=p1ulv28309.1.2 kV=0.2080002494301389 Vminpu=0.8 Vmaxpu=1.2 model=1 kW=4.17004 kvar=0.8489421946902781 Phases=2

New Load.load_p1ulv28341 conn=wye bus1=p1ulv28341.1.2 kV=0.2080002494301389 Vminpu=0.8 Vmaxpu=1.2 model=1 kW=5.07005 kvar=1.0295175623474335 Phases=2

New Load.load_p1ulv28378 conn=wye bus1=p1ulv28378.1.2 kV=0.2080002494301389 Vminpu=0.8 Vmaxpu=1.2 model=1 kW=3.50004 kvar=0.7107134345654403 Phases=2

New Load.load_p1ulv28446 conn=wye bus1=p1ulv28446.1.2 kV=0.2080002494301389 Vminpu=0.8 Vmaxpu=1.2 model=1 kW=5.12005 kvar=1.0396704953791336 Phases=2

New Load.load_p1ulv28530 conn=wye bus1=p1ulv28530.1.2 kV=0.2080002494301389 Vminpu=0.8 Vmaxpu=1.2 model=1 kW=3.33003 kvar=0.6796683639857601 Phases=2

New Load.load_p1ulv28595 conn=wye bus1=p1ulv28595.1.2 kV=0.2080002494301389 Vminpu=0.8 Vmaxpu=1.2 model=1 kW=3.16003 kvar=0.6400161257551694 Phases=2

New Load.load_p1ulv28657 conn=wye bus1=p1ulv28657.1.2 kV=0.2080002494301389 Vminpu=0.8 Vmaxpu=1.2 model=1 kW=4.98005 kvar=1.011242282890373 Phases=2

New Load.load_p1ulv28698 conn=wye bus1=p1ulv28698.1.2 kV=0.2080002494301389 Vminpu=0.8 Vmaxpu=1.2 model=1 kW=6.49006 kvar=1.3212548992507473 Phases=2

New Load.load_p1ulv28734 conn=wye bus1=p1ulv28734.1.2 kV=0.2080002494301389 Vminpu=0.8 Vmaxpu=1.2 model=1 kW=3.34003 kvar=0.679967673818805 Phases=2

New Load.load_p1ulv28801 conn=wye bus1=p1ulv28801.1.2 kV=0.2080002494301389 Vminpu=0.8 Vmaxpu=1.2 model=1 kW=3.20003 kvar=0.6497938057886328 Phases=2

New Load.load_p1ulv28859 conn=wye bus1=p1ulv28859.1.2 kV=0.2080002494301389 Vminpu=0.8 Vmaxpu=1.2 model=1 kW=4.08004 kvar=0.8306198770333432 Phases=2

New Load.load_p1ulv28906 conn=wye bus1=p1ulv28906.1.2 kV=0.2080002494301389 Vminpu=0.8 Vmaxpu=1.2 model=1 kW=3.38003 kvar=0.6898735027380501 Phases=2

New Load.load_p1ulv28932 conn=wye bus1=p1ulv28932.1.2 kV=0.2080002494301389 Vminpu=0.8 Vmaxpu=1.2 model=1 kW=5.98006 kvar=1.2111704107187142 Phases=2

New Load.load_p1ulv29002 conn=wye bus1=p1ulv29002.1.2 kV=0.2080002494301389 Vminpu=0.8 Vmaxpu=1.2 model=1 kW=5.59006 kvar=1.1292468671581726 Phases=2

New Load.load_p1ulv29036 conn=wye bus1=p1ulv29036.1.2 kV=0.2080002494301389 Vminpu=0.8 Vmaxpu=1.2 model=1 kW=4.2400400000000005 kvar=0.8609768434346036 Phases=2

New Load.load_p1ulv29063 conn=wye bus1=p1ulv29063.1.2 kV=0.2080002494301389 Vminpu=0.8 Vmaxpu=1.2 model=1 kW=4.47004 kvar=0.9100165868800613 Phases=2

New Load.load_p1ulv29124 conn=wye bus1=p1ulv29124.1.2 kV=0.2080002494301389 Vminpu=0.8 Vmaxpu=1.2 model=1 kW=3.61004 kvar=0.7292634355115489 Phases=2

New Load.load_p1ulv29153 conn=wye bus1=p1ulv29153.1.2 kV=0.2080002494301389 Vminpu=0.8 Vmaxpu=1.2 model=1 kW=4.82005 kvar=0.9787528971889325 Phases=2

New Load.load_p1ulv29377 conn=wye bus1=p1ulv29377.1.2 kV=0.2080002494301389 Vminpu=0.8 Vmaxpu=1.2 model=1 kW=4.10004 kvar=0.8304008874096844 Phases=2

New Load.load_p1ulv29444 conn=wye bus1=p1ulv29444.1.2 kV=0.2080002494301389 Vminpu=0.8 Vmaxpu=1.2 model=1 kW=3.24003 kvar=0.6596095430888772 Phases=2

New Load.load_p1ulv29574 conn=wye bus1=p1ulv29574.1.2 kV=0.2080002494301389 Vminpu=0.8 Vmaxpu=1.2 model=1 kW=3.06003 kvar=0.6197626431693976 Phases=2

New Load.load_p1ulv29604 conn=wye bus1=p1ulv29604.1.2 kV=0.2080002494301389 Vminpu=0.8 Vmaxpu=1.2 model=1 kW=5.75006 kvar=1.1706047318492825 Phases=2

New Load.load_p1ulv29728 conn=wye bus1=p1ulv29728.1.2 kV=0.2080002494301389 Vminpu=0.8 Vmaxpu=1.2 model=1 kW=4.07004 kvar=0.8307064585474014 Phases=2

New Load.load_p1ulv29757 conn=wye bus1=p1ulv29757.1.2 kV=0.2080002494301389 Vminpu=0.8 Vmaxpu=1.2 model=1 kW=4.53005 kvar=0.9198658856050712 Phases=2

New Load.load_p1ulv29825 conn=wye bus1=p1ulv29825.1.2 kV=0.2080002494301389 Vminpu=0.8 Vmaxpu=1.2 model=1 kW=4.33004 kvar=0.879252122891664 Phases=2

New Load.load_p1ulv29856 conn=wye bus1=p1ulv29856.1.2 kV=0.2080002494301389 Vminpu=0.8 Vmaxpu=1.2 model=1 kW=1.9800200000000001 kvar=0.39998343164662364 Phases=2

New Load.load_p1ulv29922 conn=wye bus1=p1ulv29922.1.2 kV=0.2080002494301389 Vminpu=0.8 Vmaxpu=1.2 model=1 kW=3.70004 kvar=0.7493869570665965 Phases=2

New Load.load_p1ulv29991 conn=wye bus1=p1ulv29991.1.2 kV=0.2080002494301389 Vminpu=0.8 Vmaxpu=1.2 model=1 kW=5.560060000000001 kvar=1.129018336644702 Phases=2

New Load.load_p1ulv30065 conn=wye bus1=p1ulv30065.1.2 kV=0.2080002494301389 Vminpu=0.8 Vmaxpu=1.2 model=1 kW=3.87004 kvar=0.7898859035382418 Phases=2

New Load.load_p1ulv30095 conn=wye bus1=p1ulv30095.1.2 kV=0.2080002494301389 Vminpu=0.8 Vmaxpu=1.2 model=1 kW=4.48004 kvar=0.9097109219867646 Phases=2

New Load.load_p1ulv30138 conn=wye bus1=p1ulv30138.1.2 kV=0.2080002494301389 Vminpu=0.8 Vmaxpu=1.2 model=1 kW=4.50005 kvar=0.9090541719686612 Phases=2

New Load.load_p1ulv30174 conn=wye bus1=p1ulv30174.1.2 kV=0.2080002494301389 Vminpu=0.8 Vmaxpu=1.2 model=1 kW=1.79002 kvar=0.35971543666359257 Phases=2

New Load.load_p1ulv30208 conn=wye bus1=p1ulv30208.1.2 kV=0.2080002494301389 Vminpu=0.8 Vmaxpu=1.2 model=1 kW=4.56005 kvar=0.9307188593475932 Phases=2

New Load.load_p1ulv30245 conn=wye bus1=p1ulv30245.1.2 kV=0.2080002494301389 Vminpu=0.8 Vmaxpu=1.2 model=1 kW=4.08004 kvar=0.8306198770333432 Phases=2

New Load.load_p1ulv30275 conn=wye bus1=p1ulv30275.1.2 kV=0.2080002494301389 Vminpu=0.8 Vmaxpu=1.2 model=1 kW=1.94002 kvar=0.38985885154138106 Phases=2

New Load.load_p1ulv30314 conn=wye bus1=p1ulv30314.1.2 kV=0.2080002494301389 Vminpu=0.8 Vmaxpu=1.2 model=1 kW=4.14004 kvar=0.8406709773712032 Phases=2

New Load.load_p1ulv30330 conn=wye bus1=p1ulv30330.1.2 kV=0.2080002494301389 Vminpu=0.8 Vmaxpu=1.2 model=1 kW=3.90004 kvar=0.7898939222381405 Phases=2

New Load.load_p1ulv30464 conn=wye bus1=p1ulv30464.1.2 kV=0.2080002494301389 Vminpu=0.8 Vmaxpu=1.2 model=1 kW=4.85005 kvar=0.9899086641108747 Phases=2

New Load.load_p1ulv30493 conn=wye bus1=p1ulv30493.1.2 kV=0.2080002494301389 Vminpu=0.8 Vmaxpu=1.2 model=1 kW=4.86005 kvar=0.9894153325398525 Phases=2

New Load.load_p1ulv30529 conn=wye bus1=p1ulv30529.1.2 kV=0.2080002494301389 Vminpu=0.8 Vmaxpu=1.2 model=1 kW=4.68005 kvar=0.9503246847001716 Phases=2

New Load.load_p1ulv30533 conn=wye bus1=p1ulv30533.1.2 kV=0.2080002494301389 Vminpu=0.8 Vmaxpu=1.2 model=1 kW=6.00006 kvar=1.2215000586741016 Phases=2

New Load.load_p1ulv30573 conn=wye bus1=p1ulv30573.1.2 kV=0.2080002494301389 Vminpu=0.8 Vmaxpu=1.2 model=1 kW=5.560060000000001 kvar=1.129018336644702 Phases=2

New Load.load_p1ulv30598 conn=wye bus1=p1ulv30598.1.2 kV=0.2080002494301389 Vminpu=0.8 Vmaxpu=1.2 model=1 kW=4.66005 kvar=0.951129136852173 Phases=2

New Load.load_p1ulv30727 conn=wye bus1=p1ulv30727.1.2 kV=0.2080002494301389 Vminpu=0.8 Vmaxpu=1.2 model=1 kW=4.47004 kvar=0.9100165868800613 Phases=2

New Load.load_p1ulv30755 conn=wye bus1=p1ulv30755.1.2 kV=0.2080002494301389 Vminpu=0.8 Vmaxpu=1.2 model=1 kW=4.66005 kvar=0.951129136852173 Phases=2

New Load.load_p1ulv30849 conn=wye bus1=p1ulv30849.1.2 kV=0.2080002494301389 Vminpu=0.8 Vmaxpu=1.2 model=1 kW=4.10004 kvar=0.8304008874096844 Phases=2

New Load.load_p1ulv30943 conn=wye bus1=p1ulv30943.1.2 kV=0.2080002494301389 Vminpu=0.8 Vmaxpu=1.2 model=1 kW=4.40004 kvar=0.8911613351670004 Phases=2

New Load.load_p1ulv31028 conn=wye bus1=p1ulv31028.1.2 kV=0.2080002494301389 Vminpu=0.8 Vmaxpu=1.2 model=1 kW=4.69005 kvar=0.9498984600139976 Phases=2

New Load.load_p1ulv31126 conn=wye bus1=p1ulv31126.1.2 kV=0.2080002494301389 Vminpu=0.8 Vmaxpu=1.2 model=1 kW=4.89005 kvar=0.9904054251855413 Phases=2

New Load.load_p1ulv31184 conn=wye bus1=p1ulv31184.1.2 kV=0.2080002494301389 Vminpu=0.8 Vmaxpu=1.2 model=1 kW=4.34004 kvar=0.8790092456155372 Phases=2

New Load.load_p1ulv31215 conn=wye bus1=p1ulv31215.1.2 kV=0.2080002494301389 Vminpu=0.8 Vmaxpu=1.2 model=1 kW=5.51006 kvar=1.1188654036130017 Phases=2

New Load.load_p1ulv31313 conn=wye bus1=p1ulv31313.1.2 kV=0.2080002494301389 Vminpu=0.8 Vmaxpu=1.2 model=1 kW=4.25004 kvar=0.8607811112883423 Phases=2

New Load.load_p1ulv31343 conn=wye bus1=p1ulv31343.1.2 kV=0.2080002494301389 Vminpu=0.8 Vmaxpu=1.2 model=1 kW=5.00005 kvar=1.0205240803677447 Phases=2

New Load.load_p1ulv31360 conn=wye bus1=p1ulv31360.1.2 kV=0.2080002494301389 Vminpu=0.8 Vmaxpu=1.2 model=1 kW=4.71005 kvar=0.9588781364449609 Phases=2

New Load.load_p1ulv31394 conn=wye bus1=p1ulv31394.1.2 kV=0.2080002494301389 Vminpu=0.8 Vmaxpu=1.2 model=1 kW=3.87004 kvar=0.7898859035382418 Phases=2

New Load.load_p1ulv31423 conn=wye bus1=p1ulv31423.1.2 kV=0.2080002494301389 Vminpu=0.8 Vmaxpu=1.2 model=1 kW=4.880050000000001 kvar=0.9909364168269728 Phases=2

New Load.load_p1ulv31526 conn=wye bus1=p1ulv31526.1.2 kV=0.2080002494301389 Vminpu=0.8 Vmaxpu=1.2 model=1 kW=3.72004 kvar=0.7592704872813721 Phases=2

New Load.load_p1ulv31553 conn=wye bus1=p1ulv31553.1.2 kV=0.2080002494301389 Vminpu=0.8 Vmaxpu=1.2 model=1 kW=4.13004 kvar=0.840798942398307 Phases=2

New Load.load_p1ulv31616 conn=wye bus1=p1ulv31616.1.2 kV=0.2080002494301389 Vminpu=0.8 Vmaxpu=1.2 model=1 kW=3.58004 kvar=0.7306960987749602 Phases=2

New Load.load_p1ulv31761 conn=wye bus1=p1ulv31761.1.2 kV=0.2080002494301389 Vminpu=0.8 Vmaxpu=1.2 model=1 kW=4.64005 kvar=0.9397717187211114 Phases=2

New Load.load_p1ulv31799 conn=wye bus1=p1ulv31799.1.2 kV=0.2080002494301389 Vminpu=0.8 Vmaxpu=1.2 model=1 kW=3.9600400000000002 kvar=0.7999668632932473 Phases=2

New Load.load_p1ulv31952 conn=wye bus1=p1ulv31952.1.2 kV=0.2080002494301389 Vminpu=0.8 Vmaxpu=1.2 model=1 kW=2.79003 kvar=0.569452865461029 Phases=2

New Load.load_p1ulv31984 conn=wye bus1=p1ulv31984.1.2 kV=0.2080002494301389 Vminpu=0.8 Vmaxpu=1.2 model=1 kW=4.72005 kvar=0.9609139495179535 Phases=2

New Load.load_p1ulv32015 conn=wye bus1=p1ulv32015.1.2 kV=0.2080002494301389 Vminpu=0.8 Vmaxpu=1.2 model=1 kW=3.15003 kvar=0.6396408727569326 Phases=2

New Load.load_p1ulv32044 conn=wye bus1=p1ulv32044.1.2 kV=0.2080002494301389 Vminpu=0.8 Vmaxpu=1.2 model=1 kW=3.2600300000000004 kvar=0.6602696083409414 Phases=2

New Load.load_p1ulv32238 conn=wye bus1=p1ulv32238.1.2 kV=0.2080002494301389 Vminpu=0.8 Vmaxpu=1.2 model=1 kW=5.14005 kvar=1.0410391316499712 Phases=2

New Load.load_p1ulv32305 conn=wye bus1=p1ulv32305.1.2 kV=0.2080002494301389 Vminpu=0.8 Vmaxpu=1.2 model=1 kW=4.04004 kvar=0.8203651113078028 Phases=2

New Load.load_p1ulv32528 conn=wye bus1=p1ulv32528.1.2 kV=0.2080002494301389 Vminpu=0.8 Vmaxpu=1.2 model=1 kW=4.34004 kvar=0.8790092456155372 Phases=2

New Load.load_p1ulv32619 conn=wye bus1=p1ulv32619.1.2 kV=0.2080002494301389 Vminpu=0.8 Vmaxpu=1.2 model=1 kW=4.69005 kvar=0.9498984600139976 Phases=2

New Load.load_p1ulv32778 conn=wye bus1=p1ulv32778.1.2 kV=0.2080002494301389 Vminpu=0.8 Vmaxpu=1.2 model=1 kW=3.2800300000000004 kvar=0.6694632252334703 Phases=2

New Load.load_p1ulv32812 conn=wye bus1=p1ulv32812.1.2 kV=0.2080002494301389 Vminpu=0.8 Vmaxpu=1.2 model=1 kW=3.54004 kvar=0.7206859710917335 Phases=2

New Load.load_p1ulv32840 conn=wye bus1=p1ulv32840.1.2 kV=0.2080002494301389 Vminpu=0.8 Vmaxpu=1.2 model=1 kW=5.19005 kvar=1.0511658729428572 Phases=2

New Load.load_p1ulv32944 conn=wye bus1=p1ulv32944.1.2 kV=0.2080002494301389 Vminpu=0.8 Vmaxpu=1.2 model=1 kW=4.46004 kvar=0.910306540815263 Phases=2

New Load.load_p1ulv32990 conn=wye bus1=p1ulv32990.1.2 kV=0.2080002494301389 Vminpu=0.8 Vmaxpu=1.2 model=1 kW=1.96002 kvar=0.40004552114526587 Phases=2

New Load.load_p1ulv33065 conn=wye bus1=p1ulv33065.1.2 kV=0.2080002494301389 Vminpu=0.8 Vmaxpu=1.2 model=1 kW=4.37004 kvar=0.8896584561501336 Phases=2

New Load.load_p1ulv33096 conn=wye bus1=p1ulv33096.1.2 kV=0.2080002494301389 Vminpu=0.8 Vmaxpu=1.2 model=1 kW=4.76005 kvar=0.9690572018099246 Phases=2

New Load.load_p1ulv33190 conn=wye bus1=p1ulv33190.1.2 kV=0.2080002494301389 Vminpu=0.8 Vmaxpu=1.2 model=1 kW=3.55004 kvar=0.7208663675971405 Phases=2

New Load.load_p1ulv33217 conn=wye bus1=p1ulv33217.1.2 kV=0.2080002494301389 Vminpu=0.8 Vmaxpu=1.2 model=1 kW=4.97005 kvar=1.009211696284033 Phases=2

New Load.load_p1ulv33325 conn=wye bus1=p1ulv33325.1.2 kV=0.2080002494301389 Vminpu=0.8 Vmaxpu=1.2 model=1 kW=5.31005 kvar=1.0810269208245273 Phases=2

New Load.load_p1ulv33354 conn=wye bus1=p1ulv33354.1.2 kV=0.2080002494301389 Vminpu=0.8 Vmaxpu=1.2 model=1 kW=4.09004 kvar=0.8305180443395029 Phases=2

New Load.load_p1ulv33456 conn=wye bus1=p1ulv33456.1.2 kV=0.2080002494301389 Vminpu=0.8 Vmaxpu=1.2 model=1 kW=3.9400400000000007 kvar=0.8000592452444024 Phases=2

New Load.load_p1ulv33588 conn=wye bus1=p1ulv33588.1.2 kV=0.2080002494301389 Vminpu=0.8 Vmaxpu=1.2 model=1 kW=3.38003 kvar=0.6898735027380501 Phases=2

New Load.load_p1ulv33618 conn=wye bus1=p1ulv33618.1.2 kV=0.2080002494301389 Vminpu=0.8 Vmaxpu=1.2 model=1 kW=3.58004 kvar=0.7306960987749602 Phases=2

New Load.load_p1ulv33686 conn=wye bus1=p1ulv33686.1.2.3 kV=0.48 Vminpu=0.8 Vmaxpu=1.2 model=1 kW=33.9103 kvar=6.885780099697275 Phases=3

New Load.load_p1ulv33747 conn=wye bus1=p1ulv33747.1.2 kV=0.2080002494301389 Vminpu=0.8 Vmaxpu=1.2 model=1 kW=3.78004 kvar=0.7695454848435601 Phases=2

New Load.load_p1ulv33776 conn=wye bus1=p1ulv33776.1.2 kV=0.2080002494301389 Vminpu=0.8 Vmaxpu=1.2 model=1 kW=1.44001 kvar=0.2901383334885957 Phases=2

New Load.load_p1ulv33801 conn=wye bus1=p1ulv33801.1.2 kV=0.2080002494301389 Vminpu=0.8 Vmaxpu=1.2 model=1 kW=3.24003 kvar=0.6596095430888772 Phases=2

New Load.load_p1ulv33902 conn=wye bus1=p1ulv33902.1.2 kV=0.2080002494301389 Vminpu=0.8 Vmaxpu=1.2 model=1 kW=5.24005 kvar=1.0612926142357433 Phases=2

New Load.load_p1ulv34081 conn=wye bus1=p1ulv34081.1.2 kV=0.2080002494301389 Vminpu=0.8 Vmaxpu=1.2 model=1 kW=3.81004 kvar=0.769665394243948 Phases=2

New Load.load_p1ulv34119 conn=wye bus1=p1ulv34119.1.2 kV=0.2080002494301389 Vminpu=0.8 Vmaxpu=1.2 model=1 kW=3.87004 kvar=0.7898859035382418 Phases=2

New Load.load_p1ulv34350 conn=wye bus1=p1ulv34350.1.2 kV=0.2080002494301389 Vminpu=0.8 Vmaxpu=1.2 model=1 kW=3.76004 kvar=0.7595649045608481 Phases=2

New Load.load_p1ulv34351 conn=wye bus1=p1ulv34351.1.2.3 kV=0.48 Vminpu=0.8 Vmaxpu=1.2 model=1 kW=33.3203 kvar=6.765975489923214 Phases=3

New Load.load_p1ulv34431 conn=wye bus1=p1ulv34431.1.2 kV=0.2080002494301389 Vminpu=0.8 Vmaxpu=1.2 model=1 kW=4.32004 kvar=0.8794793907851697 Phases=2

New Load.load_p1ulv34530 conn=wye bus1=p1ulv34530.1.2 kV=0.2080002494301389 Vminpu=0.8 Vmaxpu=1.2 model=1 kW=1.87002 kvar=0.3797237565588007 Phases=2

New Load.load_p1ulv34562 conn=wye bus1=p1ulv34562.1.2 kV=0.2080002494301389 Vminpu=0.8 Vmaxpu=1.2 model=1 kW=4.01004 kvar=0.810067352976347 Phases=2

New Load.load_p1ulv34625 conn=wye bus1=p1ulv34625.1.2 kV=0.2080002494301389 Vminpu=0.8 Vmaxpu=1.2 model=1 kW=5.11005 kvar=1.0403106593646716 Phases=2

New Load.load_p1ulv34729 conn=wye bus1=p1ulv34729.1.2 kV=0.2080002494301389 Vminpu=0.8 Vmaxpu=1.2 model=1 kW=3.84004 kvar=0.7797533791810017 Phases=2

New Load.load_p1ulv34790 conn=wye bus1=p1ulv34790.1.2 kV=0.2080002494301389 Vminpu=0.8 Vmaxpu=1.2 model=1 kW=3.34003 kvar=0.679967673818805 Phases=2

New Load.load_p1ulv34888 conn=wye bus1=p1ulv34888.1.2 kV=0.2080002494301389 Vminpu=0.8 Vmaxpu=1.2 model=1 kW=5.92006 kvar=1.1990183211672512 Phases=2

New Load.load_p1ulv34978 conn=wye bus1=p1ulv34978.1.2.3 kV=0.48 Vminpu=0.8 Vmaxpu=1.2 model=1 kW=22.740200000000005 kvar=4.6175945545493855 Phases=3

New Load.load_p1ulv35092 conn=wye bus1=p1ulv35092.1.2 kV=0.2080002494301389 Vminpu=0.8 Vmaxpu=1.2 model=1 kW=4.71005 kvar=0.9588781364449609 Phases=2

New Load.load_p1ulv35117 conn=wye bus1=p1ulv35117.1.2 kV=0.2080002494301389 Vminpu=0.8 Vmaxpu=1.2 model=1 kW=4.95005 kvar=0.999958579116559 Phases=2

New Load.load_p1ulv35180 conn=wye bus1=p1ulv35180.1.2 kV=0.2080002494301389 Vminpu=0.8 Vmaxpu=1.2 model=1 kW=4.91005 kvar=0.9995943979048163 Phases=2

New Load.load_p1ulv35237 conn=wye bus1=p1ulv35237.1.2 kV=0.2080002494301389 Vminpu=0.8 Vmaxpu=1.2 model=1 kW=3.95004 kvar=0.8000206635310265 Phases=2

New Load.load_p1ulv35269 conn=wye bus1=p1ulv35269.1.2 kV=0.2080002494301389 Vminpu=0.8 Vmaxpu=1.2 model=1 kW=4.75005 kvar=0.95955662038416 Phases=2

New Load.load_p1ulv35305 conn=wye bus1=p1ulv35305.1.2 kV=0.2080002494301389 Vminpu=0.8 Vmaxpu=1.2 model=1 kW=4.4900400000000005 kvar=0.9093894694941951 Phases=2

New Load.load_p1ulv35331 conn=wye bus1=p1ulv35331.1.2 kV=0.2080002494301389 Vminpu=0.8 Vmaxpu=1.2 model=1 kW=4.39004 kvar=0.8891359869084231 Phases=2

New Load.load_p1ulv35400 conn=wye bus1=p1ulv35400.1.2 kV=0.2080002494301389 Vminpu=0.8 Vmaxpu=1.2 model=1 kW=4.90005 kvar=1.0001138028631646 Phases=2

New Load.load_p1ulv35426 conn=wye bus1=p1ulv35426.1.2 kV=0.2080002494301389 Vminpu=0.8 Vmaxpu=1.2 model=1 kW=2.75003 kvar=0.5598547025122315 Phases=2

New Load.load_p1ulv35522 conn=wye bus1=p1ulv35522.1.2 kV=0.2080002494301389 Vminpu=0.8 Vmaxpu=1.2 model=1 kW=4.15004 kvar=0.8405276287025704 Phases=2

New Load.load_p1ulv35549 conn=wye bus1=p1ulv35549.1.2 kV=0.2080002494301389 Vminpu=0.8 Vmaxpu=1.2 model=1 kW=4.83005 kvar=0.9807834837952725 Phases=2

New Load.load_p1ulv35786 conn=wye bus1=p1ulv35786.1.2 kV=0.2080002494301389 Vminpu=0.8 Vmaxpu=1.2 model=1 kW=3.56004 kvar=0.7191629458284491 Phases=2

New Load.load_p1ulv35876 conn=wye bus1=p1ulv35876.1.2 kV=0.2080002494301389 Vminpu=0.8 Vmaxpu=1.2 model=1 kW=3.44003 kvar=0.7003258045487328 Phases=2

New Load.load_p1ulv36007 conn=wye bus1=p1ulv36007.1.2 kV=0.2080002494301389 Vminpu=0.8 Vmaxpu=1.2 model=1 kW=4.03004 kvar=0.8204408116683792 Phases=2

New Load.load_p1ulv36028 conn=wye bus1=p1ulv36028.1.2 kV=0.2080002494301389 Vminpu=0.8 Vmaxpu=1.2 model=1 kW=3.7300400000000002 kvar=0.7593664194785962 Phases=2

New Load.load_p1ulv36057 conn=wye bus1=p1ulv36057.1.2 kV=0.2080002494301389 Vminpu=0.8 Vmaxpu=1.2 model=1 kW=4.89005 kvar=0.9904054251855413 Phases=2

New Load.load_p1ulv36094 conn=wye bus1=p1ulv36094.1.2 kV=0.2080002494301389 Vminpu=0.8 Vmaxpu=1.2 model=1 kW=5.11005 kvar=1.0403106593646716 Phases=2

New Load.load_p1ulv36153 conn=wye bus1=p1ulv36153.1.2 kV=0.2080002494301389 Vminpu=0.8 Vmaxpu=1.2 model=1 kW=4.19004 kvar=0.8508239104029033 Phases=2

New Load.load_p1ulv36216 conn=wye bus1=p1ulv36216.1.2 kV=0.2080002494301389 Vminpu=0.8 Vmaxpu=1.2 model=1 kW=4.23004 kvar=0.8589462568282636 Phases=2

New Load.load_p1ulv36226 conn=wye bus1=p1ulv36226.1.2 kV=0.2080002494301389 Vminpu=0.8 Vmaxpu=1.2 model=1 kW=3.67004 kvar=0.7394527047982206 Phases=2

New Load.load_p1ulv36257 conn=wye bus1=p1ulv36257.1.2 kV=0.2080002494301389 Vminpu=0.8 Vmaxpu=1.2 model=1 kW=5.43005 kvar=1.0997742311487098 Phases=2

New Load.load_p1ulv36284 conn=wye bus1=p1ulv36284.1.2 kV=0.2080002494301389 Vminpu=0.8 Vmaxpu=1.2 model=1 kW=5.39005 kvar=1.088842888327837 Phases=2

New Load.load_p1ulv36314 conn=wye bus1=p1ulv36314.1.2 kV=0.2080002494301389 Vminpu=0.8 Vmaxpu=1.2 model=1 kW=5.06005 kvar=1.030131593999708 Phases=2

New Load.load_p1ulv36418 conn=wye bus1=p1ulv36418.1.2 kV=0.2080002494301389 Vminpu=0.8 Vmaxpu=1.2 model=1 kW=4.200040000000001 kvar=0.8506543699954566 Phases=2

New Load.load_p1ulv36471 conn=wye bus1=p1ulv36471.1.2 kV=0.2080002494301389 Vminpu=0.8 Vmaxpu=1.2 model=1 kW=3.95004 kvar=0.8000206635310265 Phases=2

New Load.load_p1ulv36503 conn=wye bus1=p1ulv36503.1.2 kV=0.2080002494301389 Vminpu=0.8 Vmaxpu=1.2 model=1 kW=4.04004 kvar=0.8203651113078028 Phases=2

New Load.load_p1ulv36534 conn=wye bus1=p1ulv36534.1.2 kV=0.2080002494301389 Vminpu=0.8 Vmaxpu=1.2 model=1 kW=5.27005 kvar=1.0701292944742342 Phases=2

New Load.load_p1ulv36566 conn=wye bus1=p1ulv36566.1.2 kV=0.2080002494301389 Vminpu=0.8 Vmaxpu=1.2 model=1 kW=3.87004 kvar=0.7898859035382418 Phases=2

New Load.load_p1ulv36596 conn=wye bus1=p1ulv36596.1.2 kV=0.2080002494301389 Vminpu=0.8 Vmaxpu=1.2 model=1 kW=5.26005 kvar=1.070847855459563 Phases=2

New Load.load_p1ulv36647 conn=wye bus1=p1ulv36647.1.2 kV=0.2080002494301389 Vminpu=0.8 Vmaxpu=1.2 model=1 kW=5.03005 kvar=1.0187603008056223 Phases=2

New Load.load_p1ulv36709 conn=wye bus1=p1ulv36709.1.2 kV=0.2080002494301389 Vminpu=0.8 Vmaxpu=1.2 model=1 kW=3.92004 kvar=0.8000910422905317 Phases=2

New Load.load_p1ulv36774 conn=wye bus1=p1ulv36774.1.2 kV=0.2080002494301389 Vminpu=0.8 Vmaxpu=1.2 model=1 kW=4.05004 kvar=0.8202741461167985 Phases=2

New Load.load_p1ulv36804 conn=wye bus1=p1ulv36804.1.2 kV=0.2080002494301389 Vminpu=0.8 Vmaxpu=1.2 model=1 kW=5.850060000000001 kvar=1.19096286257921 Phases=2

New Load.load_p1ulv36856 conn=wye bus1=p1ulv36856.1.2 kV=0.2080002494301389 Vminpu=0.8 Vmaxpu=1.2 model=1 kW=4.10004 kvar=0.8304008874096844 Phases=2

New Load.load_p1ulv36886 conn=wye bus1=p1ulv36886.1.2 kV=0.2080002494301389 Vminpu=0.8 Vmaxpu=1.2 model=1 kW=4.19004 kvar=0.8508239104029033 Phases=2

New Load.load_p1ulv36920 conn=wye bus1=p1ulv36920.1.2 kV=0.2080002494301389 Vminpu=0.8 Vmaxpu=1.2 model=1 kW=4.47004 kvar=0.9100165868800613 Phases=2

New Load.load_p1ulv36983 conn=wye bus1=p1ulv36983.1.2 kV=0.2080002494301389 Vminpu=0.8 Vmaxpu=1.2 model=1 kW=2.07002 kvar=0.4203354886856016 Phases=2

New Load.load_p1ulv37016 conn=wye bus1=p1ulv37016.1.2 kV=0.2080002494301389 Vminpu=0.8 Vmaxpu=1.2 model=1 kW=4.61005 kvar=0.9409239980998833 Phases=2

New Load.load_p1ulv37031 conn=wye bus1=p1ulv37031.1.2 kV=0.2080002494301389 Vminpu=0.8 Vmaxpu=1.2 model=1 kW=5.48005 kvar=1.109900972441596 Phases=2

New Load.load_p1ulv37066 conn=wye bus1=p1ulv37066.1.2 kV=0.2080002494301389 Vminpu=0.8 Vmaxpu=1.2 model=1 kW=4.35004 kvar=0.8810345938741143 Phases=2

New Load.load_p1ulv37132 conn=wye bus1=p1ulv37132.1.2 kV=0.2080002494301389 Vminpu=0.8 Vmaxpu=1.2 model=1 kW=1.38001 kvar=0.28022298226153225 Phases=2

...